/*--------------------------------*- C++ -*----------------------------------*\
| =========                 |                                                 |
| \\      /  F ield         | OpenFOAM: The Open Source CFD Toolbox           |
|  \\    /   O peration     | Version:  2.4.0                                 |
|   \\  /    A nd           | Web:      www.OpenFOAM.org                      |
|    \\/     M anipulation  |                                                 |
\*---------------------------------------------------------------------------*/
FoamFile
{
    version     2.0;
    format      ascii;
    class       dictionary;
    object      controlDict;
}
// * * * * * * * * * * * * * * * * * * * * * * * * * * * * * * * * * * * * * //

libs
(
    "libOpenFOAM.so"
    "libincompressibleTurbulenceModel.so"
    "libincompressibleRASModels.so"
);

application     simpleFoam;

startFrom       latestTime;

startTime       0;

stopAt          endTime;

endTime         200; // 1000

deltaT          1;

writeControl    timeStep;

writeInterval   200;

purgeWrite      0;


//- Uncomment to have regular (every 2 hours of run time) restart files
//secondaryWriteControl    cpuTime; // runtime
//secondaryWriteInterval   7200;    // seconds
//secondaryPurgeWrite      1;       // keep all but last dump


writeFormat     binary;

writePrecision  6;

writeCompression uncompressed;

timeFormat      general;

timePrecision   6;

runTimeModifiable true;

functions
{
    #include "readFields"
    #include "streamLines"
    #include "wallBoundedStreamLines"
    #include "cuttingPlane"
    #include "forceCoeffs"
}

//Added for force output.
libs
(
    "libforces.so"
);

functions
{
    //wheelcase
    //{
    //    patches             (veloGroup);
    //    CofR                (0 0 0);
    //    outputControl       timeStep;
    //    outputInterval      1000;
    //    type                forces;
    //    pName               p;
    //    UName               U;
    //    rhoName             rhoInf;
    //    rhoInf              1;
    //    log                 true;
    //}

    //top
    //{
    //    patches             (veloGroup);
    //    CofR                (0 0 0);
    //    outputControl       timeStep;
    //    outputInterval      1000;
    //    type                forces;
    //    pName               p;
    //    UName               U;
    //    rhoName             rhoInf;
    //    rhoInf              1;
    //    log                 true;
    //}

    velo
    {
        patches             (veloGroup);
        CofR                (0 0 0);
        outputControl       timeStep;
        outputInterval      1000;
        type                forces;
        pName               p;
        UName               U;
        rhoName             rhoInf;
        rhoInf              1;
        log                 true;
    }
}
// ************************************************************************* //


