/*--------------------------------*- C++ -*----------------------------------*\
| =========                 |                                                 |
| \\      /  F ield         | OpenFOAM: The Open Source CFD Toolbox           |
|  \\    /   O peration     | Version:  2.4.0                                 |
|   \\  /    A nd           | Web:      www.OpenFOAM.org                      |
|    \\/     M anipulation  |                                                 |
\*---------------------------------------------------------------------------*/
FoamFile
{
    version     2.0;
    format      binary;
    class       polyBoundaryMesh;
    location    "constant/polyMesh";
    object      boundary;
}
// * * * * * * * * * * * * * * * * * * * * * * * * * * * * * * * * * * * * * //

8
(
    frontAndBack
    {
        type            patch;
        nFaces          320;
        startFace       1090521;
    }
    inlet
    {
        type            patch;
        nFaces          64;
        startFace       1090841;
    }
    outlet
    {
        type            patch;
        nFaces          64;
        startFace       1090905;
    }
    lowerWall
    {
        type            wall;
        inGroups        1(wall);
        nFaces          1144;
        startFace       1090969;
    }
    upperWall
    {
        type            patch;
        nFaces          160;
        startFace       1092113;
    }
    veloMain
    {
        type            wall;
        inGroups        
2
(
veloGroup
wall
)
;
        nFaces          23875;
        startFace       1092273;
    }
    veloTop
    {
        type            wall;
        inGroups        
2
(
veloGroup
wall
)
;
        nFaces          3186;
        startFace       1116148;
    }
    veloWheelcase
    {
        type            wall;
        inGroups        
2
(
veloGroup
wall
)
;
        nFaces          4895;
        startFace       1119334;
    }
)

// ************************************************************************* //
