/*--------------------------------*- C++ -*----------------------------------*\
| =========                 |                                                 |
| \\      /  F ield         | OpenFOAM: The Open Source CFD Toolbox           |
|  \\    /   O peration     | Version:  2.4.0                                 |
|   \\  /    A nd           | Web:      www.OpenFOAM.org                      |
|    \\/     M anipulation  |                                                 |
\*---------------------------------------------------------------------------*/
FoamFile
{
    version     2.0;
    format      binary;
    class       polyBoundaryMesh;
    location    "constant/polyMesh";
    object      boundary;
}
// * * * * * * * * * * * * * * * * * * * * * * * * * * * * * * * * * * * * * //

8
(
    frontAndBack
    {
        type            patch;
        nFaces          368;
        startFace       1877537;
    }
    inlet
    {
        type            patch;
        nFaces          64;
        startFace       1877905;
    }
    outlet
    {
        type            patch;
        nFaces          64;
        startFace       1877969;
    }
    lowerWall
    {
        type            wall;
        inGroups        1(wall);
        nFaces          3373;
        startFace       1878033;
    }
    upperWall
    {
        type            patch;
        nFaces          172;
        startFace       1881406;
    }
    veloMain
    {
        type            wall;
        inGroups        
2
(
veloGroup
wall
)
;
        nFaces          39601;
        startFace       1881578;
    }
    veloTop
    {
        type            wall;
        inGroups        
2
(
veloGroup
wall
)
;
        nFaces          4562;
        startFace       1921179;
    }
    veloWheelcase
    {
        type            wall;
        inGroups        
2
(
veloGroup
wall
)
;
        nFaces          47603;
        startFace       1925741;
    }
)

// ************************************************************************* //
