/*--------------------------------*- C++ -*----------------------------------*\
| =========                 |                                                 |
| \\      /  F ield         | OpenFOAM: The Open Source CFD Toolbox           |
|  \\    /   O peration     | Version:  2.4.0                                 |
|   \\  /    A nd           | Web:      www.OpenFOAM.org                      |
|    \\/     M anipulation  |                                                 |
\*---------------------------------------------------------------------------*/
FoamFile
{
    version     2.0;
    format      binary;
    class       polyBoundaryMesh;
    location    "constant/polyMesh";
    object      boundary;
}
// * * * * * * * * * * * * * * * * * * * * * * * * * * * * * * * * * * * * * //

6
(
    frontAndBack
    {
        type            patch;
        nFaces          320;
        startFace       996893;
    }
    inlet
    {
        type            patch;
        nFaces          64;
        startFace       997213;
    }
    outlet
    {
        type            patch;
        nFaces          64;
        startFace       997277;
    }
    lowerWall
    {
        type            wall;
        inGroups        1(wall);
        nFaces          304;
        startFace       997341;
    }
    upperWall
    {
        type            patch;
        nFaces          160;
        startFace       997645;
    }
    allDef
    {
        type            wall;
        inGroups        
2
(
veloGroup
wall
)
;
        nFaces          28300;
        startFace       997805;
    }
)

// ************************************************************************* //
