/*--------------------------------*- C++ -*----------------------------------*\
| =========                 |                                                 |
| \\      /  F ield         | OpenFOAM: The Open Source CFD Toolbox           |
|  \\    /   O peration     | Version:  2.4.0                                 |
|   \\  /    A nd           | Web:      www.OpenFOAM.org                      |
|    \\/     M anipulation  |                                                 |
\*---------------------------------------------------------------------------*/
FoamFile
{
    version     2.0;
    format      binary;
    class       polyBoundaryMesh;
    location    "constant/polyMesh";
    object      boundary;
}
// * * * * * * * * * * * * * * * * * * * * * * * * * * * * * * * * * * * * * //

6
(
    frontAndBack
    {
        type            patch;
        nFaces          320;
        startFace       248806;
    }
    inlet
    {
        type            patch;
        nFaces          64;
        startFace       249126;
    }
    outlet
    {
        type            patch;
        nFaces          64;
        startFace       249190;
    }
    lowerWall
    {
        type            wall;
        inGroups        1(wall);
        nFaces          529;
        startFace       249254;
    }
    upperWall
    {
        type            patch;
        nFaces          166;
        startFace       249783;
    }
    allDef
    {
        type            wall;
        inGroups        
2
(
veloGroup
wall
)
;
        nFaces          19200;
        startFace       249949;
    }
)

// ************************************************************************* //
