/*--------------------------------*- C++ -*----------------------------------*\
| =========                 |                                                 |
| \\      /  F ield         | OpenFOAM: The Open Source CFD Toolbox           |
|  \\    /   O peration     | Version:  2.4.0                                 |
|   \\  /    A nd           | Web:      www.OpenFOAM.org                      |
|    \\/     M anipulation  |                                                 |
\*---------------------------------------------------------------------------*/
FoamFile
{
    version     2.0;
    format      binary;
    class       polyBoundaryMesh;
    location    "constant/polyMesh";
    object      boundary;
}
// * * * * * * * * * * * * * * * * * * * * * * * * * * * * * * * * * * * * * //

8
(
    frontAndBack
    {
        type            patch;
        nFaces          320;
        startFace       1662672;
    }
    inlet
    {
        type            patch;
        nFaces          64;
        startFace       1662992;
    }
    outlet
    {
        type            patch;
        nFaces          64;
        startFace       1663056;
    }
    lowerWall
    {
        type            wall;
        inGroups        1(wall);
        nFaces          4086;
        startFace       1663120;
    }
    upperWall
    {
        type            patch;
        nFaces          160;
        startFace       1667206;
    }
    veloMain
    {
        type            wall;
        inGroups        
2
(
veloGroup
wall
)
;
        nFaces          38230;
        startFace       1667366;
    }
    veloTop
    {
        type            wall;
        inGroups        
2
(
veloGroup
wall
)
;
        nFaces          4587;
        startFace       1705596;
    }
    veloWheelcase
    {
        type            wall;
        inGroups        
2
(
veloGroup
wall
)
;
        nFaces          40611;
        startFace       1710183;
    }
)

// ************************************************************************* //
