/*--------------------------------*- C++ -*----------------------------------*\
| =========                 |                                                 |
| \\      /  F ield         | OpenFOAM: The Open Source CFD Toolbox           |
|  \\    /   O peration     | Version:  2.4.0                                 |
|   \\  /    A nd           | Web:      www.OpenFOAM.org                      |
|    \\/     M anipulation  |                                                 |
\*---------------------------------------------------------------------------*/
FoamFile
{
    version     2.0;
    format      binary;
    class       polyBoundaryMesh;
    location    "constant/polyMesh";
    object      boundary;
}
// * * * * * * * * * * * * * * * * * * * * * * * * * * * * * * * * * * * * * //

8
(
    frontAndBack
    {
        type            patch;
        nFaces          320;
        startFace       1585177;
    }
    inlet
    {
        type            patch;
        nFaces          64;
        startFace       1585497;
    }
    outlet
    {
        type            patch;
        nFaces          64;
        startFace       1585561;
    }
    lowerWall
    {
        type            wall;
        inGroups        1(wall);
        nFaces          1162;
        startFace       1585625;
    }
    upperWall
    {
        type            patch;
        nFaces          172;
        startFace       1586787;
    }
    veloMain
    {
        type            wall;
        inGroups        
2
(
veloGroup
wall
)
;
        nFaces          25105;
        startFace       1586959;
    }
    veloTop
    {
        type            wall;
        inGroups        
2
(
veloGroup
wall
)
;
        nFaces          3186;
        startFace       1612064;
    }
    veloWheelcase
    {
        type            wall;
        inGroups        
2
(
veloGroup
wall
)
;
        nFaces          28792;
        startFace       1615250;
    }
)

// ************************************************************************* //
